Circuit: * C:\Users\FHoch\Documents\Projekte\Telescope-Heater\sim\Draft1.asc

Direct Newton iteration for .op point succeeded.

Date: Tue Nov 16 08:37:49 2021
Total elapsed time: 0.022 seconds.

tnom = 27
temp = 27
method = trap
totiter = 3
traniter = 0
tranpoints = 0
accept = 0
rejected = 0
matrix size = 2
fillins = 0
solver = Normal
Matrix Compiler1: 54 bytes object code size
Matrix Compiler2: 116 bytes object code size
