Circuit: * C:\Users\FHoch\Documents\Projekte\Telescope-Heater\sim\PWM.asc

Direct Newton iteration for .op point succeeded.

Date: Wed Nov 17 19:20:54 2021
Total elapsed time: 0.082 seconds.

tnom = 27
temp = 27
method = modified trap
totiter = 8937
traniter = 8926
tranpoints = 2922
accept = 2479
rejected = 443
matrix size = 19
fillins = 6
solver = Normal
Matrix Compiler1: 882 bytes object code size  0.3/0.2/[0.1]
Matrix Compiler2: 1.27 KB object code size  0.1/0.5/[0.1]

