Circuit: * C:\Users\FHoch\Documents\Projekte\Telescope-Heater\sim\Trigger.asc

WARNING: Specified period is not longer than the sum of Trise, Tfall, and Ton for v2.  Increasing period to 0.201
Direct Newton iteration failed to find .op point.  (Use ".option noopiter" to skip.)
Starting Gmin stepping
Increasing initial diagonal Gmin to 100
Gmin = 100
Gmin = 10.7374
Gmin = 1.15292
vernier = 0.5
vernier = 0.666667
Gmin = 0.4029
vernier = 0.888888
vernier = 1
Gmin = 0.06089
Gmin = 0.00653801
Gmin = 0.000702013
vernier = 0.5
vernier = 0.25
vernier = 0.125
vernier = 0.0625
Gmin = 0.000614412
vernier = 0.03125
vernier = 0.0416667
Gmin = 0.000572874
vernier = 0.0555555
vernier = 0.074074
Gmin = 0.000501934
vernier = 0.0987653
Gmin = 0.000405356
vernier = 0.131687
vernier = 0.175583
Gmin = 0.000286331
vernier = 0.23411
vernier = 0.312147
Gmin = 0.000165978
vernier = 0.416196
Gmin = 6.94929e-005
vernier = 0.554928
vernier = 0.277464
vernier = 0.138732
vernier = 0.0693659
vernier = 0.034683
vernier = 0.0173415
vernier = 0.00867074
vernier = 0.00433537
Gmin = 5.52752e-005
vernier = 0.00216769
vernier = 0.00108384
vernier = 0.000541921
vernier = 0.000406441
Gmin = 0
Gmin stepping failed

Starting source stepping with srcstepmethod=0
Source Step = 3.0303%
vernier = 0.25
Source Step = 1.70455%
Source Step = 3.59848%
Source Step = 5.49242%
Source Step = 7.38636%
Source Step = 9.2803%
vernier = 0.09375
Source Step = 11.9318%
Source Step = 14.7727%
Source Step = 17.6136%
Source Step = 20.4545%
Source Step = 23.2955%
vernier = 0.140625
Source Step = 25.4328%
Source Step = 25.4994%
Source Step = 25.566%
Source Step = 25.6325%
Source Step = 25.6991%
Source Step = 25.7657%
vernier = 0.0032959
Source Step = 25.8423%
Source Step = 25.9422%
Source Step = 26.042%
Source Step = 26.1419%
Source Step = 26.2418%
vernier = 0.00494385
Source Step = 26.3517%
Source Step = 26.5015%
Source Step = 26.6513%
Source Step = 26.8011%
Source Step = 26.9509%
vernier = 0.00741577
Source Step = 27.1082%
Source Step = 27.3329%
Source Step = 27.5577%
Source Step = 27.7824%
Source Step = 28.0071%
Source Step = 28.2318%
vernier = 0.0111237
Source Step = 28.5689%
Source Step = 28.906%
Source Step = 29.2431%
Source Step = 29.5801%
Source Step = 29.9172%
vernier = 0.0166855
Source Step = 30.406%
Source Step = 30.9116%
Source Step = 31.4172%
Source Step = 31.9228%
Source Step = 32.4285%
vernier = 0.0250282
Source Step = 33.1363%
Source Step = 33.8948%
Source Step = 34.6532%
Source Step = 35.4116%
Source Step = 36.1701%
vernier = 0.0375423
Source Step = 37.1939%
Source Step = 38.3316%
Source Step = 39.4692%
Source Step = 40.6069%
Source Step = 41.7445%
vernier = 0.0563135
Source Step = 43.2235%
Source Step = 44.9299%
Source Step = 46.6364%
Source Step = 48.3429%
Source Step = 50.0493%
vernier = 0.0844703
Source Step = 52.1824%
Source Step = 54.7421%
Source Step = 57.3018%
Source Step = 59.8616%
Source Step = 62.4213%
vernier = 0.126705
Source Step = 65.4929%
Source Step = 69.3325%
Source Step = 73.172%
Source Step = 77.0116%
Source Step = 80.8511%
vernier = 0.190058
Source Step = 85.2666%
Source Step = 91.026%
Starting source stepping with srcstepmethod=1
Source Step = 3.0303%
vernier = 0.25
Source Step = 0.378788%
Source Step = 0.852273%
Source Step = 1.32576%
Source Step = 1.79924%
Source Step = 2.27273%
vernier = 0.0234375
Source Step = 2.91193%
Source Step = 3.62216%
Source Step = 4.33239%
Source Step = 5.04261%
Source Step = 5.75284%
vernier = 0.0351563
Source Step = 6.67614%
Source Step = 7.74148%
Source Step = 8.80682%
Source Step = 9.87216%
Source Step = 10.9375%
vernier = 0.0527344
Source Step = 12.2692%
Source Step = 13.8672%
Source Step = 15.4652%
Source Step = 17.0632%
Source Step = 18.6612%
vernier = 0.0791016
Source Step = 20.5788%
Source Step = 22.9759%
Source Step = 25.3729%
Source Step = 27.7699%
Source Step = 30.1669%
vernier = 0.118652
Source Step = 32.9235%
Source Step = 36.519%
Source Step = 40.1145%
Source Step = 43.71%
Source Step = 47.3056%
vernier = 0.177979
Source Step = 51.2607%
Source Step = 56.6539%
Source Step = 62.0472%
Source Step = 67.4405%
Source Step = 72.8338%
vernier = 0.266968
Source Step = 78.4968%
Source Step = 86.5867%
Source Step = 93.2609%
vernier = 0.0166855
Source Step = 93.1724%
Source Step = 93.2988%
Source Step = 93.4252%
Source Step = 93.5516%
Source Step = 93.678%
vernier = 0.00625706
Source Step = 93.855%
Source Step = 94.0446%
Source Step = 94.2342%
Source Step = 94.4238%
Source Step = 94.6134%
vernier = 0.00938559
Source Step = 94.8694%
Source Step = 95.1538%
Source Step = 95.4382%
Source Step = 95.7226%
Source Step = 96.007%
vernier = 0.0140784
Source Step = 96.3768%
Source Step = 96.8034%
Source Step = 97.23%
Source Step = 97.6566%
Source Step = 98.0832%
vernier = 0.0211176
Source Step = 98.6165%
Source Step = 99.2564%
Source Step = 99.8964%
Source stepping succeeded in finding the operating point.

Heightened Def Con from 0.0421558 to 0.0421558
Heightened Def Con from 0.0426944 +++++++++++++++++++++++++++++to 0.0426944
Heightened Def Con from 0.0429241 ++++++++++++++++++++++++++++to 0.0429241
Heightened Def Con from 0.0734768 to 0.0734768
Heightened Def Con from 0.0740049 ++++++++++++++++++++++++++to 0.0740049
Heightened Def Con from 0.0742417 +to 0.0742417
Heightened Def Con from 0.0743525 to 0.0743525
Heightened Def Con from 0.131859 ++to 0.131859
Heightened Def Con from 0.131859 to 0.131859
Heightened Def Con from 0.13199 to 0.13199
Heightened Def Con from 0.131993 to 0.131993
Heightened Def Con from 0.13202 to 0.13202
Heightened Def Con from 0.132022 to 0.132022
Heightened Def Con from 0.132024 to 0.132024
Heightened Def Con from 0.132024 to 0.132024
Heightened Def Con from 0.132024 to 0.132024
Heightened Def Con from 0.13219 to 0.13219
Heightened Def Con from 0.13219 to 0.13219
Heightened Def Con from 0.132194 to 0.132194
Heightened Def Con from 0.164057 +++++++++++++++++++++++++++++++++to 0.164057
Heightened Def Con from 0.164477 +++++++++++++++++++++++++++++++to 0.164477
Heightened Def Con from 0.164634 +to 0.164634
Heightened Def Con from 0.164634 to 0.164634
Heightened Def Con from 0.164765 to 0.164765
Heightened Def Con from 0.164937 to 0.164937
Heightened Def Con from 0.243474 to 0.243474
Heightened Def Con from 0.243998 ++++++++++++++++++++++++++++++to 0.243998
Heightened Def Con from 0.274457 to 0.274457
Heightened Def Con from 0.275352 to 0.275352
Heightened Def Con from 0.275353 +to 0.275353
Heightened Def Con from 0.275353 to 0.275353
Heightened Def Con from 0.275521 to 0.275521
Heightened Def Con from 0.275523 to 0.275523
Heightened Def Con from 0.332203 to 0.332203
Heightened Def Con from 0.332785 ++++++++++++++++++++++++++++++++to 0.332785
Heightened Def Con from 0.332915 ++++++++++++++++++++++++++++++to 0.332915
Heightened Def Con from 0.333194 to 0.333194
Heightened Def Con from 0.333194 to 0.333194
Heightened Def Con from 0.365039 to 0.365039
Heightened Def Con from 0.365563 ++++++++++++++++++++++++++++++to 0.365563
Heightened Def Con from 0.365701 to 0.365701
Heightened Def Con from 0.444965 to 0.444965
Heightened Def Con from 0.445096 to 0.445096
Heightened Def Con from 0.445112 +++to 0.445112
Heightened Def Con from 0.475511 to 0.475511
Heightened Def Con from 0.476093 +to 0.476093
Heightened Def Con from 0.476344 to 0.476344
Heightened Def Con from 0.476352 to 0.476352
Heightened Def Con from 0.476353 to 0.476353
Heightened Def Con from 0.476353 to 0.476353
Heightened Def Con from 0.476353 to 0.476353
Heightened Def Con from 0.476521 to 0.476521
Heightened Def Con from 0.476523 to 0.476523
Heightened Def Con from 0.476523 to 0.476523
Heightened Def Con from 0.476523 to 0.476523
Heightened Def Con from 0.533881 to 0.533881
Heightened Def Con from 0.534012 to 0.534012
Heightened Def Con from 0.534012 to 0.534012
Heightened Def Con from 0.534021 to 0.534021
Heightened Def Con from 0.534021 to 0.534021
Heightened Def Con from 0.534023 to 0.534023
Heightened Def Con from 0.534023 to 0.534023
Heightened Def Con from 0.534024 to 0.534024
Heightened Def Con from 0.534024 to 0.534024
Heightened Def Con from 0.534024 to 0.534024
Heightened Def Con from 0.534024 to 0.534024
Heightened Def Con from 0.534024 to 0.534024
Heightened Def Con from 0.534024 to 0.534024
Heightened Def Con from 0.534024 to 0.534024
Heightened Def Con from 0.534024 to 0.534024
Heightened Def Con from 0.534194 to 0.534194
Heightened Def Con from 0.534194 to 0.534194
Heightened Def Con from 0.566286 +++++++++++++++++++++++++++++++++to 0.566286
Heightened Def Con from 0.566664 +++++++++++++++++++++++++to 0.566664
Heightened Def Con from 0.566743 to 0.566743
Heightened Def Con from 0.566768 to 0.566768
Heightened Def Con from 0.566769 to 0.566769
Heightened Def Con from 0.566938 to 0.566938
Heightened Def Con from 0.645965 to 0.645965
Heightened Def Con from 0.646096 to 0.646096
Heightened Def Con from 0.646112 +++to 0.646112
Heightened Def Con from 0.677311 +to 0.677311
Heightened Def Con from 0.677523 to 0.677523
Heightened Def Con from 0.677523 to 0.677523
Heightened Def Con from 0.734914 ++++++++++++++++++++++++++++++to 0.734914
Heightened Def Con from 0.734983 to 0.734983
Heightened Def Con from 0.734983 to 0.734983
Heightened Def Con from 0.734983 to 0.734983
Heightened Def Con from 0.734983 to 0.734983
Heightened Def Con from 0.735044 to 0.735044
Heightened Def Con from 0.735194 to 0.735194
Heightened Def Con from 0.767427 +++++++++++++++++++++++++++++++to 0.767427
Heightened Def Con from 0.846965 to 0.846965
Heightened Def Con from 0.847096 to 0.847096
Heightened Def Con from 0.847112 +++to 0.847112
Heightened Def Con from 0.877866 ++++++++++++++++++++++++++++++++to 0.877866
Heightened Def Con from 0.877869 to 0.877869
Heightened Def Con from 0.877869 to 0.877869
Heightened Def Con from 0.878128 ++++++++++++++++++++++++++++++++++++++++++to 0.878128
Heightened Def Con from 0.878128 +++++++++++++++++++++++++++++++to 0.878128
Heightened Def Con from 0.878295 to 0.878295
Heightened Def Con from 0.878523 +to 0.878523
Heightened Def Con from 0.878523 to 0.878523
Heightened Def Con from 0.878523 to 0.878523
Heightened Def Con from 0.935142 to 0.935142
Heightened Def Con from 0.935673 ++++++++++++++++++++++++++++++++to 0.935673
Heightened Def Con from 0.935943 ++++++++++++++++++++++++++++++to 0.935943
Heightened Def Con from 0.936007 to 0.936007
Heightened Def Con from 0.936011 to 0.936011
Heightened Def Con from 0.936012 to 0.936012
Heightened Def Con from 0.936012 to 0.936012
Heightened Def Con from 0.936012 to 0.936012
Heightened Def Con from 0.936012 to 0.936012
Heightened Def Con from 0.936012 to 0.936012
Heightened Def Con from 0.936021 to 0.936021
Heightened Def Con from 0.936021 to 0.936021
Heightened Def Con from 0.936023 to 0.936023
Heightened Def Con from 0.936023 to 0.936023
Heightened Def Con from 0.936023 to 0.936023
Heightened Def Con from 0.936024 to 0.936024
Heightened Def Con from 0.936024 to 0.936024
Heightened Def Con from 0.936024 to 0.936024
Heightened Def Con from 0.967981 to 0.967981
Heightened Def Con from 0.967981 to 0.967981
Heightened Def Con from 0.968563 ++++++++++++++++++++++++++++++to 0.968563
Heightened Def Con from 0.968938 +to 0.968938

Date: Sun Oct 31 18:27:52 2021
Total elapsed time: 815.406 seconds.

tnom = 27
temp = 27
method = modified trap
totiter = 22969325
traniter = 22957647
tranpoints = 4231171
accept = 2772619
rejected = 1459281
matrix size = 254
fillins = 368
solver = Normal
Thread vector: 18.5/10.6[6] 9.8/3.2[6] 9.5/3.5[6] 1.6/2.4[1]  2592/500
Matrix Compiler1: 33.38 KB object code size  17.5/8.4/[4.5]
Matrix Compiler2: 27.68 KB object code size  7.6/9.6/[1.7]

